906 bus system/LVTestCase_PV_voltvar/Master_PV_voltvar.dss
clear

! Yearly / demand-interval master with Volt-Var PVs @ 906.1 + 639.2 (stock Master.dss untouched).

Set DefaultBaseFrequency=50

New circuit.LVTest
Edit Vsource.Source BasekV=11 pu=1.05  ISC3=3000  ISC1=5
Redirect LineCode.txt
Redirect LoadShapes.txt
batchedit loadshape..* useactual=no
Redirect Lines.txt
Redirect Transformers.txt
Redirect Loads.txt
Redirect Monitors.txt
Redirect PV_voltvar_906.dss

New energymeter.m1 LINE.LINE1 1

Set voltagebases=[11  .416]
Calcvoltagebases

buscoords buscoords.txt
solve

set mode=yearly number=1440 stepsize=1m
Set ControlMode=STATIC

Set overloadreport=true
Set voltexcept=true
set demand=true
set DIVerbose=true

Set Year=1
solve

closedi
